@<TRIPOS>MOLECULE
ligand_acpype_input.pdb
   43    45     1     0     0
SMALL
bcc


@<TRIPOS>ATOM
      1 C1'          2.7960     8.3960    11.2290 c5         0 ATP       0.231800
      2 C2'          2.4000     7.0220    11.7250 c5         0 ATP       0.127100
      3 C3'          3.5600     6.1480    11.3350 c5         0 ATP       0.145100
      4 C4'          4.7370     7.1100    11.4020 c5         0 ATP       0.067100
      5 C5'          5.8230     6.7280    10.4400 c3         0 ATP       0.233400
      6 O5'          5.3380     6.8770     9.1240 os         0 ATP      -0.581200
      7 PA           5.8330     5.9150     7.9540 p5         0 ATP       1.657800
      8 OOPA         7.4050     6.1550     8.0000 os         0 ATP      -0.741800
      9 PB           8.4690     5.2450     7.2340 p5         0 ATP       1.643800
     10 OOPB         8.5160     5.8570     5.7870 os         0 ATP      -0.779800
     11 PG           8.2740     5.0070     4.4990 p5         0 ATP       1.432900
     12 OOPG         8.6810     5.8760     3.3480 o          0 ATP      -0.934500
     13 O4'          4.1910     8.3930    11.0640 os         0 ATP      -0.429600
     14 O1           5.5160     4.5100     8.2950 o          0 ATP      -0.700000
     15 O6           5.2800     6.4450     6.6520 o          0 ATP      -0.700000
     16 O7           9.8130     5.4430     7.8850 o          0 ATP      -0.895500
     17 O8           7.9510     3.8400     7.2130 o          0 ATP      -0.895500
     18 O9           9.1310     3.7870     4.6050 o          0 ATP      -0.934500
     19 O10          6.8070     4.6730     4.4800 o          0 ATP      -0.934500
     20 N9           2.1840     8.7260     9.9370 na         0 ATP      -0.281000
     21 C8           2.5220     8.2520     8.7210 cc         0 ATP       0.284700
     22 N7           1.7830     8.7870     7.7530 nd         0 ATP      -0.760100
     23 C5           0.9420     9.6450     8.3540 ca         0 ATP      -0.133200
     24 C4           1.2040     9.6070     9.7560 ca         0 ATP       0.401800
     25 N3           0.5330    10.3670    10.6160 nb         0 ATP      -0.686000
     26 C2          -0.3970    11.1700    10.1350 ca         0 ATP       0.568900
     27 N1          -0.7180    11.2790     8.8240 nb         0 ATP      -0.789000
     28 C6          -0.0840    10.5440     7.9070 ca         0 ATP       0.547200
     29 N6          -0.4030    10.6730     6.6020 nv         0 ATP      -0.893500
     30 O2'          2.2700     7.0890    13.1450 oh         0 ATP      -0.596800
     31 O3'          3.7110     5.0790    12.2610 oh         0 ATP      -0.643800
     32 H1'          2.5310     9.0670    11.8930 h2         0 ATP       0.036700
     33 H2'          1.5690     6.7300    11.2950 h1         0 ATP       0.055700
     34 H3'          3.4840     5.7950    10.4240 h1         0 ATP       0.082700
     35 H4'          5.1180     7.1620    12.3040 h1         0 ATP       0.061700
     36 HH5'         6.6050     7.3070    10.5590 h1         0 ATP       0.018200
     37 H5           6.0900     5.7950    10.5780 h1         0 ATP       0.018200
     38 H8           3.3030     7.5600     8.5370 h5         0 ATP       0.108800
     39 H2          -0.9490    11.7860    10.7980 h5         0 ATP       0.005100
     40 HH6         -1.1060    11.3120     6.3240 hn         0 ATP       0.352300
     41 H6           0.0670    10.1280     5.9230 hn         0 ATP       0.352300
     42 HO2'         1.5080     7.6640    13.3690 ho         0 ATP       0.408000
     43 HO3'         4.5320     4.5880    12.0500 ho         0 ATP       0.469000
@<TRIPOS>BOND
     1     1     2 1   
     2     1    13 1   
     3     1    20 1   
     4     1    32 1   
     5     2     3 1   
     6     2    30 1   
     7     2    33 1   
     8     3     4 1   
     9     3    31 1   
    10     3    34 1   
    11     4     5 1   
    12     4    13 1   
    13     4    35 1   
    14     5     6 1   
    15     5    36 1   
    16     5    37 1   
    17     6     7 1   
    18     7     8 1   
    19     7    14 1   
    20     7    15 1   
    21     8     9 1   
    22     9    10 1   
    23     9    16 1   
    24     9    17 1   
    25    10    11 1   
    26    11    12 1   
    27    11    18 1   
    28    11    19 1   
    29    20    21 1   
    30    20    24 1   
    31    21    22 2   
    32    21    38 1   
    33    22    23 1   
    34    23    24 ar  
    35    23    28 ar  
    36    24    25 ar  
    37    25    26 ar  
    38    26    27 ar  
    39    26    39 1   
    40    27    28 ar  
    41    28    29 1   
    42    29    40 1   
    43    29    41 1   
    44    30    42 1   
    45    31    43 1   
@<TRIPOS>SUBSTRUCTURE
     1 ATP         1 TEMP              0 ****  ****    0 ROOT
