@<TRIPOS>MOLECULE
ligand_acpype_input.pdb
 43 45 0 0 0
SMALL
GASTEIGER

@<TRIPOS>ATOM
      1  C1'        2.7960    8.3960   11.2290 C.3     0  ATP0        0.1667
      2  C2'        2.4000    7.0220   11.7250 C.3     0  ATP0        0.1285
      3  C3'        3.5600    6.1480   11.3350 C.3     0  ATP0        0.1135
      4  C4'        4.7370    7.1100   11.4020 C.3     0  ATP0        0.1133
      5  C5'        5.8230    6.7280   10.4400 C.3     0  ATP0        0.0836
      6  O5'        5.3380    6.8770    9.1240 O.3     0  ATP0       -0.3246
      7  PA         5.8330    5.9150    7.9540 P.3     0  ATP0        0.2182
      8 3OPA        7.4050    6.1550    8.0000 O.3     0  ATP0       -0.2700
      9  PB         8.4690    5.2450    7.2340 P.3     0  ATP0        0.2277
     10 3OPB        8.5160    5.8570    5.7870 O.3     0  ATP0       -0.2258
     11  PG         8.2740    5.0070    4.4990 P.3     0  ATP0        0.5373
     12 3OPG        8.6810    5.8760    3.3480 O.2     0  ATP0       -0.2221
     13  O4'        4.1910    8.3930   11.0640 O.3     0  ATP0       -0.3456
     14 1OPA        5.5160    4.5100    8.2950 O.2     0  ATP0       -0.5170
     15 2OPA        5.2800    6.4450    6.6520 O.3     0  ATP0       -0.4371
     16 1OPB        9.8130    5.4430    7.8850 O.2     0  ATP0       -0.5168
     17 2OPB        7.9510    3.8400    7.2130 O.3     0  ATP0       -0.4368
     18 1OPG        9.1310    3.7870    4.6050 O.3     0  ATP0       -0.1143
     19 2OPG        6.8070    4.6730    4.4800 O.3     0  ATP0       -0.1143
     20  N9         2.1840    8.7260    9.9370 N.ar    0  ATP0       -0.2855
     21  C8         2.5220    8.2520    8.7210 C.ar    0  ATP0        0.1004
     22  N7         1.7830    8.7870    7.7530 N.ar    0  ATP0       -0.2306
     23  C5         0.9420    9.6450    8.3540 C.ar    0  ATP0        0.1473
     24  C4         1.2040    9.6070    9.7560 C.ar    0  ATP0        0.1674
     25  N3         0.5330   10.3670   10.6160 N.ar    0  ATP0       -0.2159
     26  C2        -0.3970   11.1700   10.1350 C.ar    0  ATP0        0.1205
     27  N1        -0.7180   11.2790    8.8240 N.ar    0  ATP0       -0.2188
     28  C6        -0.0840   10.5440    7.9070 C.ar    0  ATP0        0.1472
     29  N6        -0.4030   10.6730    6.6020 N.pl3   0  ATP0       -0.3413
     30  O2'        2.2700    7.0890   13.1450 O.3     0  ATP0       -0.3847
     31  O3'        3.7110    5.0790   12.2610 O.3     0  ATP0       -0.3864
     32  H1'        2.5310    9.0670   11.8930 H       0  ATP0        0.0866
     33  H2'        1.5690    6.7300   11.2950 H       0  ATP0        0.0665
     34  H3'        3.4840    5.7950   10.4240 H       0  ATP0        0.0647
     35  H4'        5.1180    7.1620   12.3040 H       0  ATP0        0.0647
     36 1H5'        6.6050    7.3070   10.5590 H       0  ATP0        0.0591
     37 2H5'        6.0900    5.7950   10.5780 H       0  ATP0        0.0591
     38  H8         3.3030    7.5600    8.5370 H       0  ATP0        0.1030
     39  H2        -0.9490   11.7860   10.7980 H       0  ATP0        0.1048
     40  1H6       -1.1060   11.3120    6.3240 H       0  ATP0        0.1438
     41  2H6        0.0670   10.1280    5.9230 H       0  ATP0        0.1438
     42 HO2'        1.5080    7.6640   13.3690 H       0  ATP0        0.2101
     43 HO3'        4.5320    4.5880   12.0500 H       0  ATP0        0.2100
@<TRIPOS>BOND
     1     1     2    1
     2     1    13    1
     3     1    20    1
     4     1    32    1
     5     2     3    1
     6     2    30    1
     7     2    33    1
     8     3     4    1
     9     3    31    1
    10     3    34    1
    11     4     5    1
    12     4    13    1
    13     4    35    1
    14     5     6    1
    15     5    36    1
    16     5    37    1
    17     6     7    1
    18     7     8    1
    19     7    14    2
    20     7    15    1
    21     8     9    1
    22     9    10    1
    23     9    16    2
    24     9    17    1
    25    10    11    1
    26    11    12    2
    27    11    18    1
    28    11    19    1
    29    20    21   ar
    30    20    24   ar
    31    21    22   ar
    32    21    38    1
    33    22    23   ar
    34    23    24   ar
    35    23    28   ar
    36    24    25   ar
    37    25    26   ar
    38    26    27   ar
    39    26    39    1
    40    27    28   ar
    41    28    29    1
    42    29    40    1
    43    29    41    1
    44    30    42    1
    45    31    43    1
