@<TRIPOS>MOLECULE
ligand_acpype_input.pdb
   43    45     1     0     0
SMALL
bcc


@<TRIPOS>ATOM
      1 C1'         -8.3350    -4.6640     7.3790 c5         0 ATP       0.243800
      2 C2'         -7.1610    -5.3500     6.7180 c5         0 ATP       0.128100
      3 C3'         -6.4770    -6.0310     7.8890 c5         0 ATP       0.062100
      4 C4'         -6.7990    -5.1190     9.0760 c5         0 ATP       0.113100
      5 C5'         -5.6280    -4.2710     9.5160 c3         0 ATP       0.209400
      6 O5'         -5.1670    -3.5220     8.4120 os         0 ATP      -0.605200
      7 PA          -3.7050    -2.8850     8.3820 p5         0 ATP       1.596800
      8 OOPA        -2.7540    -4.1620     8.3670 os         0 ATP      -0.824800
      9 PB          -2.2770    -4.9960     7.1080 p5         0 ATP       1.721800
     10 OOPB        -0.7290    -4.7140     7.0280 os         0 ATP      -0.814800
     11 PG           0.0030    -3.3670     6.5250 p5         0 ATP       1.459900
     12 OOPG        -0.9890    -2.5000     5.8100 o          0 ATP      -0.958500
     13 O4'         -7.8700    -4.2780     8.6740 os         0 ATP      -0.447600
     14 O1          -3.4430    -2.1570     9.6420 o          0 ATP      -0.885500
     15 O6          -3.5690    -2.0960     7.1140 o          0 ATP      -0.885500
     16 O7          -2.9520    -4.5390     5.8700 o          0 ATP      -0.949000
     17 O8          -2.4840    -6.4640     7.4390 o          0 ATP      -0.949000
     18 O9           1.0860    -3.8420     5.6380 o          0 ATP      -0.958500
     19 O10          0.5280    -2.7040     7.7660 o          0 ATP      -0.958500
     20 N9          -8.7600    -3.4570     6.6560 na         0 ATP      -0.235000
     21 C8          -8.0420    -2.3390     6.4370 cc         0 ATP       0.513700
     22 N7          -8.7420    -1.4220     5.7500 nd         0 ATP      -0.653100
     23 C5          -9.9540    -1.9810     5.5160 ca         0 ATP      -0.163200
     24 C4          -9.9670    -3.2830     6.0950 ca         0 ATP       0.412800
     25 N3         -11.0490    -4.0660     6.0310 nb         0 ATP      -0.698000
     26 C2         -12.1320    -3.6040     5.4060 ca         0 ATP       0.589900
     27 N1         -12.2110    -2.3940     4.8280 nb         0 ATP      -0.802000
     28 C6         -11.1530    -1.5580     4.8560 ca         0 ATP       0.613200
     29 N6         -11.2500    -0.3390     4.2840 nv         0 ATP      -0.906500
     30 O2'         -7.5900    -6.2760     5.7330 oh         0 ATP      -0.672800
     31 O3'         -7.0520    -7.3060     8.1250 oh         0 ATP      -0.646800
     32 H1'         -9.0860    -5.2910     7.4320 h2         0 ATP       0.066700
     33 H2'         -6.5930    -4.6550     6.3250 h1         0 ATP       0.131700
     34 H3'         -5.5050    -6.0920     7.7840 h1         0 ATP       0.188700
     35 H4'         -7.0920    -5.6700     9.8320 h1         0 ATP       0.034700
     36 HH5'        -5.9000    -3.6550    10.2280 h1         0 ATP       0.015200
     37 H5          -4.8990    -4.8380     9.8440 h1         0 ATP       0.015200
     38 H8          -7.0490    -2.1820     6.7730 h5         0 ATP       0.234800
     39 H2         -12.9980    -4.2120     5.3440 h5         0 ATP       0.003100
     40 HH6        -12.0940    -0.0610     3.8470 hn         0 ATP       0.374300
     41 H6         -10.4760     0.2780     4.3020 hn         0 ATP       0.374300
     42 HO2'        -8.0230    -5.7870     5.0020 ho         0 ATP       0.499000
     43 HO3'        -6.6730    -7.6790     8.9480 ho         0 ATP       0.413000
@<TRIPOS>BOND
     1     1     2 1   
     2     1    13 1   
     3     1    20 1   
     4     1    32 1   
     5     2     3 1   
     6     2    30 1   
     7     2    33 1   
     8     3     4 1   
     9     3    31 1   
    10     3    34 1   
    11     4     5 1   
    12     4    13 1   
    13     4    35 1   
    14     5     6 1   
    15     5    36 1   
    16     5    37 1   
    17     6     7 1   
    18     7     8 1   
    19     7    14 1   
    20     7    15 1   
    21     8     9 1   
    22     9    10 1   
    23     9    16 1   
    24     9    17 1   
    25    10    11 1   
    26    11    12 1   
    27    11    18 1   
    28    11    19 1   
    29    20    21 1   
    30    20    24 1   
    31    21    22 2   
    32    21    38 1   
    33    22    23 1   
    34    23    24 ar  
    35    23    28 ar  
    36    24    25 ar  
    37    25    26 ar  
    38    26    27 ar  
    39    26    39 1   
    40    27    28 ar  
    41    28    29 1   
    42    29    40 1   
    43    29    41 1   
    44    30    42 1   
    45    31    43 1   
@<TRIPOS>SUBSTRUCTURE
     1 ATP         1 TEMP              0 ****  ****    0 ROOT
