@<TRIPOS>MOLECULE
ligand_acpype_input.pdb
 43 45 0 0 0
SMALL
GASTEIGER

@<TRIPOS>ATOM
      1  C1'       -8.3350   -4.6640    7.3790 C.3     0  ATP0        0.1667
      2  C2'       -7.1610   -5.3500    6.7180 C.3     0  ATP0        0.1285
      3  C3'       -6.4770   -6.0310    7.8890 C.3     0  ATP0        0.1135
      4  C4'       -6.7990   -5.1190    9.0760 C.3     0  ATP0        0.1133
      5  C5'       -5.6280   -4.2710    9.5160 C.3     0  ATP0        0.0836
      6  O5'       -5.1670   -3.5220    8.4120 O.3     0  ATP0       -0.3246
      7  PA        -3.7050   -2.8850    8.3820 P.3     0  ATP0        0.2182
      8 3OPA       -2.7540   -4.1620    8.3670 O.3     0  ATP0       -0.2700
      9  PB        -2.2770   -4.9960    7.1080 P.3     0  ATP0        0.2277
     10 3OPB       -0.7290   -4.7140    7.0280 O.3     0  ATP0       -0.2258
     11  PG         0.0030   -3.3670    6.5250 P.3     0  ATP0        0.5373
     12 3OPG       -0.9890   -2.5000    5.8100 O.2     0  ATP0       -0.2221
     13  O4'       -7.8700   -4.2780    8.6740 O.3     0  ATP0       -0.3456
     14 1OPA       -3.4430   -2.1570    9.6420 O.2     0  ATP0       -0.5170
     15 2OPA       -3.5690   -2.0960    7.1140 O.3     0  ATP0       -0.4371
     16 1OPB       -2.9520   -4.5390    5.8700 O.2     0  ATP0       -0.5168
     17 2OPB       -2.4840   -6.4640    7.4390 O.3     0  ATP0       -0.4368
     18 1OPG        1.0860   -3.8420    5.6380 O.3     0  ATP0       -0.1143
     19 2OPG        0.5280   -2.7040    7.7660 O.3     0  ATP0       -0.1143
     20  N9        -8.7600   -3.4570    6.6560 N.ar    0  ATP0       -0.2855
     21  C8        -8.0420   -2.3390    6.4370 C.ar    0  ATP0        0.1004
     22  N7        -8.7420   -1.4220    5.7500 N.ar    0  ATP0       -0.2306
     23  C5        -9.9540   -1.9810    5.5160 C.ar    0  ATP0        0.1473
     24  C4        -9.9670   -3.2830    6.0950 C.ar    0  ATP0        0.1674
     25  N3       -11.0490   -4.0660    6.0310 N.ar    0  ATP0       -0.2159
     26  C2       -12.1320   -3.6040    5.4060 C.ar    0  ATP0        0.1205
     27  N1       -12.2110   -2.3940    4.8280 N.ar    0  ATP0       -0.2188
     28  C6       -11.1530   -1.5580    4.8560 C.ar    0  ATP0        0.1472
     29  N6       -11.2500   -0.3390    4.2840 N.pl3   0  ATP0       -0.3413
     30  O2'       -7.5900   -6.2760    5.7330 O.3     0  ATP0       -0.3847
     31  O3'       -7.0520   -7.3060    8.1250 O.3     0  ATP0       -0.3864
     32  H1'       -9.0860   -5.2910    7.4320 H       0  ATP0        0.0866
     33  H2'       -6.5930   -4.6550    6.3250 H       0  ATP0        0.0665
     34  H3'       -5.5050   -6.0920    7.7840 H       0  ATP0        0.0647
     35  H4'       -7.0920   -5.6700    9.8320 H       0  ATP0        0.0647
     36 1H5'       -5.9000   -3.6550   10.2280 H       0  ATP0        0.0591
     37 2H5'       -4.8990   -4.8380    9.8440 H       0  ATP0        0.0591
     38  H8        -7.0490   -2.1820    6.7730 H       0  ATP0        0.1030
     39  H2       -12.9980   -4.2120    5.3440 H       0  ATP0        0.1048
     40  1H6      -12.0940   -0.0610    3.8470 H       0  ATP0        0.1438
     41  2H6      -10.4760    0.2780    4.3020 H       0  ATP0        0.1438
     42 HO2'       -8.0230   -5.7870    5.0020 H       0  ATP0        0.2101
     43 HO3'       -6.6730   -7.6790    8.9480 H       0  ATP0        0.2100
@<TRIPOS>BOND
     1     1     2    1
     2     1    13    1
     3     1    20    1
     4     1    32    1
     5     2     3    1
     6     2    30    1
     7     2    33    1
     8     3     4    1
     9     3    31    1
    10     3    34    1
    11     4     5    1
    12     4    13    1
    13     4    35    1
    14     5     6    1
    15     5    36    1
    16     5    37    1
    17     6     7    1
    18     7     8    1
    19     7    14    2
    20     7    15    1
    21     8     9    1
    22     9    10    1
    23     9    16    2
    24     9    17    1
    25    10    11    1
    26    11    12    2
    27    11    18    1
    28    11    19    1
    29    20    21   ar
    30    20    24   ar
    31    21    22   ar
    32    21    38    1
    33    22    23   ar
    34    23    24   ar
    35    23    28   ar
    36    24    25   ar
    37    25    26   ar
    38    26    27   ar
    39    26    39    1
    40    27    28   ar
    41    28    29    1
    42    29    40    1
    43    29    41    1
    44    30    42    1
    45    31    43    1
