@<TRIPOS>MOLECULE
ligand_acpype_input.pdb
   43    45     1     0     0
SMALL
bcc


@<TRIPOS>ATOM
      1 C1'         -4.6090     7.3730     5.0090 c5         0 ATP       0.240800
      2 C2'         -3.4500     7.3990     5.9610 c5         0 ATP       0.115100
      3 C3'         -2.3380     6.8080     5.0980 c5         0 ATP       0.112100
      4 C4'         -3.0340     5.8100     4.2220 c5         0 ATP       0.097100
      5 C5'         -3.0580     4.3820     4.7540 c3         0 ATP       0.168400
      6 O5'         -2.8590     4.3900     6.1240 os         0 ATP      -0.606200
      7 PA          -1.5430     3.7610     6.7270 p5         0 ATP       1.607800
      8 OOPA        -0.4000     4.3980     5.8080 os         0 ATP      -0.788800
      9 PB           1.1250     3.9450     5.6770 p5         0 ATP       1.677800
     10 OOPB         1.6710     4.0540     7.1530 os         0 ATP      -0.797800
     11 PG           1.7130     2.9160     8.2470 p5         0 ATP       1.447900
     12 OOPG         0.9860     1.7190     7.7230 o          0 ATP      -0.947167
     13 O4'         -4.3760     6.2900     4.1080 os         0 ATP      -0.435600
     14 O1          -1.4030     4.2790     8.1190 o          0 ATP      -0.671000
     15 O6          -1.5600     2.2780     6.5180 o          0 ATP      -0.671000
     16 O7           1.7970     4.9820     4.8310 o          0 ATP      -0.918000
     17 O8           1.1820     2.5340     5.1570 o          0 ATP      -0.918000
     18 O9           3.1510     2.6430     8.4780 o          0 ATP      -0.947167
     19 O10          1.0270     3.5140     9.4420 o          0 ATP      -0.947167
     20 N9          -5.8890     7.0970     5.6320 na         0 ATP      -0.275000
     21 C8          -6.1510     6.1520     6.5570 cc         0 ATP       0.346700
     22 N7          -7.4660     6.1350     6.8370 nd         0 ATP      -0.773100
     23 C5          -8.0310     7.0910     6.0650 ca         0 ATP      -0.111200
     24 C4          -7.0250     7.7110     5.3000 ca         0 ATP       0.386800
     25 N3          -7.2620     8.7070     4.4360 nb         0 ATP      -0.706000
     26 C2          -8.5170     9.1200     4.2950 ca         0 ATP       0.557900
     27 N1          -9.5510     8.5750     4.9790 nb         0 ATP      -0.781000
     28 C6          -9.3570     7.5820     5.8610 ca         0 ATP       0.530200
     29 N6         -10.4050     7.0520     6.5240 nv         0 ATP      -0.891500
     30 O2'         -3.1810     8.7260     6.3810 oh         0 ATP      -0.618800
     31 O3'         -1.7640     7.8420     4.2880 oh         0 ATP      -0.673800
     32 H1'         -4.6700     8.2380     4.5520 h2         0 ATP       0.041700
     33 H2'         -3.6500     6.8270     6.7310 h1         0 ATP       0.108700
     34 H3'         -1.6480     6.3510     5.6220 h1         0 ATP       0.079700
     35 H4'         -2.6150     5.8100     3.3360 h1         0 ATP       0.061700
     36 HH5'        -3.9240     3.9670     4.5600 h1         0 ATP       0.071200
     37 H5          -2.3480     3.8550     4.3320 h1         0 ATP       0.071200
     38 H8          -5.4360     5.4750     6.9490 h5         0 ATP       0.134800
     39 H2          -8.7350     9.9080     3.6200 h5         0 ATP      -0.001900
     40 HH6        -11.3200     7.3940     6.3620 hn         0 ATP       0.350800
     41 H6         -10.2590     6.3200     7.1740 hn         0 ATP       0.350800
     42 HO2'        -3.9290     9.0450     6.9280 ho         0 ATP       0.414000
     43 HO3'        -1.1190     7.4410     3.6690 ho         0 ATP       0.508000
@<TRIPOS>BOND
     1     1     2 1   
     2     1    13 1   
     3     1    20 1   
     4     1    32 1   
     5     2     3 1   
     6     2    30 1   
     7     2    33 1   
     8     3     4 1   
     9     3    31 1   
    10     3    34 1   
    11     4     5 1   
    12     4    13 1   
    13     4    35 1   
    14     5     6 1   
    15     5    36 1   
    16     5    37 1   
    17     6     7 1   
    18     7     8 1   
    19     7    14 1   
    20     7    15 1   
    21     8     9 1   
    22     9    10 1   
    23     9    16 1   
    24     9    17 1   
    25    10    11 1   
    26    11    12 1   
    27    11    18 1   
    28    11    19 1   
    29    20    21 1   
    30    20    24 1   
    31    21    22 2   
    32    21    38 1   
    33    22    23 1   
    34    23    24 ar  
    35    23    28 ar  
    36    24    25 ar  
    37    25    26 ar  
    38    26    27 ar  
    39    26    39 1   
    40    27    28 ar  
    41    28    29 1   
    42    29    40 1   
    43    29    41 1   
    44    30    42 1   
    45    31    43 1   
@<TRIPOS>SUBSTRUCTURE
     1 ATP         1 TEMP              0 ****  ****    0 ROOT
