@<TRIPOS>MOLECULE
ligand_acpype_input.pdb
 43 45 0 0 0
SMALL
GASTEIGER

@<TRIPOS>ATOM
      1  C1'       -4.6090    7.3730    5.0090 C.3     0  ATP0        0.1667
      2  C2'       -3.4500    7.3990    5.9610 C.3     0  ATP0        0.1285
      3  C3'       -2.3380    6.8080    5.0980 C.3     0  ATP0        0.1135
      4  C4'       -3.0340    5.8100    4.2220 C.3     0  ATP0        0.1133
      5  C5'       -3.0580    4.3820    4.7540 C.3     0  ATP0        0.0836
      6  O5'       -2.8590    4.3900    6.1240 O.3     0  ATP0       -0.3246
      7  PA        -1.5430    3.7610    6.7270 P.3     0  ATP0        0.2182
      8 3OPA       -0.4000    4.3980    5.8080 O.3     0  ATP0       -0.2700
      9  PB         1.1250    3.9450    5.6770 P.3     0  ATP0        0.2277
     10 3OPB        1.6710    4.0540    7.1530 O.3     0  ATP0       -0.2258
     11  PG         1.7130    2.9160    8.2470 P.3     0  ATP0        0.5373
     12 3OPG        0.9860    1.7190    7.7230 O.2     0  ATP0       -0.2221
     13  O4'       -4.3760    6.2900    4.1080 O.3     0  ATP0       -0.3456
     14 1OPA       -1.4030    4.2790    8.1190 O.2     0  ATP0       -0.5170
     15 2OPA       -1.5600    2.2780    6.5180 O.3     0  ATP0       -0.4371
     16 1OPB        1.7970    4.9820    4.8310 O.2     0  ATP0       -0.5168
     17 2OPB        1.1820    2.5340    5.1570 O.3     0  ATP0       -0.4368
     18 1OPG        3.1510    2.6430    8.4780 O.3     0  ATP0       -0.1143
     19 2OPG        1.0270    3.5140    9.4420 O.3     0  ATP0       -0.1143
     20  N9        -5.8890    7.0970    5.6320 N.ar    0  ATP0       -0.2855
     21  C8        -6.1510    6.1520    6.5570 C.ar    0  ATP0        0.1004
     22  N7        -7.4660    6.1350    6.8370 N.ar    0  ATP0       -0.2306
     23  C5        -8.0310    7.0910    6.0650 C.ar    0  ATP0        0.1473
     24  C4        -7.0250    7.7110    5.3000 C.ar    0  ATP0        0.1674
     25  N3        -7.2620    8.7070    4.4360 N.ar    0  ATP0       -0.2159
     26  C2        -8.5170    9.1200    4.2950 C.ar    0  ATP0        0.1205
     27  N1        -9.5510    8.5750    4.9790 N.ar    0  ATP0       -0.2188
     28  C6        -9.3570    7.5820    5.8610 C.ar    0  ATP0        0.1472
     29  N6       -10.4050    7.0520    6.5240 N.pl3   0  ATP0       -0.3413
     30  O2'       -3.1810    8.7260    6.3810 O.3     0  ATP0       -0.3847
     31  O3'       -1.7640    7.8420    4.2880 O.3     0  ATP0       -0.3864
     32  H1'       -4.6700    8.2380    4.5520 H       0  ATP0        0.0866
     33  H2'       -3.6500    6.8270    6.7310 H       0  ATP0        0.0665
     34  H3'       -1.6480    6.3510    5.6220 H       0  ATP0        0.0647
     35  H4'       -2.6150    5.8100    3.3360 H       0  ATP0        0.0647
     36 1H5'       -3.9240    3.9670    4.5600 H       0  ATP0        0.0591
     37 2H5'       -2.3480    3.8550    4.3320 H       0  ATP0        0.0591
     38  H8        -5.4360    5.4750    6.9490 H       0  ATP0        0.1030
     39  H2        -8.7350    9.9080    3.6200 H       0  ATP0        0.1048
     40  1H6      -11.3200    7.3940    6.3620 H       0  ATP0        0.1438
     41  2H6      -10.2590    6.3200    7.1740 H       0  ATP0        0.1438
     42 HO2'       -3.9290    9.0450    6.9280 H       0  ATP0        0.2101
     43 HO3'       -1.1190    7.4410    3.6690 H       0  ATP0        0.2100
@<TRIPOS>BOND
     1     1     2    1
     2     1    13    1
     3     1    20    1
     4     1    32    1
     5     2     3    1
     6     2    30    1
     7     2    33    1
     8     3     4    1
     9     3    31    1
    10     3    34    1
    11     4     5    1
    12     4    13    1
    13     4    35    1
    14     5     6    1
    15     5    36    1
    16     5    37    1
    17     6     7    1
    18     7     8    1
    19     7    14    2
    20     7    15    1
    21     8     9    1
    22     9    10    1
    23     9    16    2
    24     9    17    1
    25    10    11    1
    26    11    12    2
    27    11    18    1
    28    11    19    1
    29    20    21   ar
    30    20    24   ar
    31    21    22   ar
    32    21    38    1
    33    22    23   ar
    34    23    24   ar
    35    23    28   ar
    36    24    25   ar
    37    25    26   ar
    38    26    27   ar
    39    26    39    1
    40    27    28   ar
    41    28    29    1
    42    29    40    1
    43    29    41    1
    44    30    42    1
    45    31    43    1
