@<TRIPOS>MOLECULE
ligand_acpype_input.pdb
 43 45 0 0 0
SMALL
GASTEIGER

@<TRIPOS>ATOM
      1  C1'       -7.5310   -3.0970    7.8720 C.3     0  ATP0        0.1667
      2  C2'       -6.6290   -3.9620    7.0250 C.3     0  ATP0        0.1285
      3  C3'       -5.2330   -3.4820    7.3850 C.3     0  ATP0        0.1135
      4  C4'       -5.3900   -3.0140    8.8070 C.3     0  ATP0        0.1133
      5  C5'       -4.3970   -1.9320    9.1900 C.3     0  ATP0        0.0836
      6  O5'       -4.6270   -0.7440    8.4830 O.3     0  ATP0       -0.3246
      7  PA        -3.4320    0.2300    8.0600 P.3     0  ATP0        0.2182
      8 3OPA       -2.2830   -0.0510    9.1190 O.3     0  ATP0       -0.2700
      9  PB        -0.8430   -0.6640    8.8160 P.3     0  ATP0        0.2277
     10 3OPB        0.0540    0.6050    8.4450 O.3     0  ATP0       -0.2258
     11  PG         0.3160    1.2280    7.0100 P.3     0  ATP0        0.5373
     12 3OPG        0.5220    0.1100    6.0430 O.2     0  ATP0       -0.2221
     13  O4'       -6.7260   -2.5250    8.8920 O.3     0  ATP0       -0.3456
     14 1OPA       -3.8810    1.6380    8.2330 O.2     0  ATP0       -0.5170
     15 2OPA       -2.9530   -0.1540    6.6910 O.3     0  ATP0       -0.4371
     16 1OPB       -0.9150   -1.6290    7.6980 O.2     0  ATP0       -0.5168
     17 2OPB       -0.3310   -1.2180   10.1290 O.3     0  ATP0       -0.4368
     18 1OPG       -0.8780    2.0720    6.6890 O.3     0  ATP0       -0.1143
     19 2OPG        1.5570    2.0540    7.1690 O.3     0  ATP0       -0.1143
     20  N9        -8.1440   -2.0210    7.0860 N.ar    0  ATP0       -0.2855
     21  C8        -7.6400   -0.7820    6.8740 C.ar    0  ATP0        0.1004
     22  N7        -8.4650   -0.0440    6.1370 N.ar    0  ATP0       -0.2306
     23  C5        -9.5410   -0.8170    5.8720 C.ar    0  ATP0        0.1473
     24  C4        -9.3400   -2.0830    6.4840 C.ar    0  ATP0        0.1674
     25  N3       -10.2460   -3.0530    6.3970 N.ar    0  ATP0       -0.2159
     26  C2       -11.3590   -2.8220    5.7100 C.ar    0  ATP0        0.1205
     27  N1       -11.6330   -1.6620    5.0900 N.ar    0  ATP0       -0.2188
     28  C6       -10.7640   -0.6390    5.1410 C.ar    0  ATP0        0.1472
     29  N6       -11.0500    0.5170    4.5210 N.pl3   0  ATP0       -0.3413
     30  O2'       -6.8270   -5.3240    7.4030 O.3     0  ATP0       -0.3847
     31  O3'       -4.2890   -4.5380    7.3120 O.3     0  ATP0       -0.3864
     32  H1'       -8.2310   -3.6550    8.2710 H       0  ATP0        0.0866
     33  H2'       -6.8240   -3.8200    6.0750 H       0  ATP0        0.0665
     34  H3'       -4.9480   -2.7280    6.8270 H       0  ATP0        0.0647
     35  H4'       -5.2940   -3.7650    9.4290 H       0  ATP0        0.0647
     36 1H5'       -4.4760   -1.7520   10.1500 H       0  ATP0        0.0591
     37 2H5'       -3.4900   -2.2480    8.9960 H       0  ATP0        0.0591
     38  H8        -6.7200   -0.4280    7.2640 H       0  ATP0        0.1030
     39  H2       -12.0910   -3.5850    5.6300 H       0  ATP0        0.1048
     40  1H6      -11.9010    0.6170    4.0260 H       0  ATP0        0.1438
     41  2H6      -10.4080    1.2700    4.5600 H       0  ATP0        0.1438
     42 HO2'       -7.7360   -5.5950    7.1550 H       0  ATP0        0.2101
     43 HO3'       -3.4240   -4.2170    7.6430 H       0  ATP0        0.2100
@<TRIPOS>BOND
     1     1     2    1
     2     1    13    1
     3     1    20    1
     4     1    32    1
     5     2     3    1
     6     2    30    1
     7     2    33    1
     8     3     4    1
     9     3    31    1
    10     3    34    1
    11     4     5    1
    12     4    13    1
    13     4    35    1
    14     5     6    1
    15     5    36    1
    16     5    37    1
    17     6     7    1
    18     7     8    1
    19     7    14    2
    20     7    15    1
    21     8     9    1
    22     9    10    1
    23     9    16    2
    24     9    17    1
    25    10    11    1
    26    11    12    2
    27    11    18    1
    28    11    19    1
    29    20    21   ar
    30    20    24   ar
    31    21    22   ar
    32    21    38    1
    33    22    23   ar
    34    23    24   ar
    35    23    28   ar
    36    24    25   ar
    37    25    26   ar
    38    26    27   ar
    39    26    39    1
    40    27    28   ar
    41    28    29    1
    42    29    40    1
    43    29    41    1
    44    30    42    1
    45    31    43    1
