@<TRIPOS>MOLECULE
ligand_acpype_input.pdb
   43    45     1     0     0
SMALL
bcc


@<TRIPOS>ATOM
      1 C1'         -7.5310    -3.0970     7.8720 c5         0 ATP       0.231800
      2 C2'         -6.6290    -3.9620     7.0250 c5         0 ATP       0.129100
      3 C3'         -5.2330    -3.4820     7.3850 c5         0 ATP       0.151100
      4 C4'         -5.3900    -3.0140     8.8070 c5         0 ATP       0.071100
      5 C5'         -4.3970    -1.9320     9.1900 c3         0 ATP       0.188400
      6 O5'         -4.6270    -0.7440     8.4830 os         0 ATP      -0.589200
      7 PA          -3.4320     0.2300     8.0600 p5         0 ATP       1.639800
      8 OOPA        -2.2830    -0.0510     9.1190 os         0 ATP      -0.794800
      9 PB          -0.8430    -0.6640     8.8160 p5         0 ATP       1.692800
     10 OOPB         0.0540     0.6050     8.4450 os         0 ATP      -0.815800
     11 PG           0.3160     1.2280     7.0100 p5         0 ATP       1.475900
     12 OOPG         0.5220     0.1100     6.0430 o          0 ATP      -0.957167
     13 O4'         -6.7260    -2.5250     8.8920 os         0 ATP      -0.433600
     14 O1          -3.8810     1.6380     8.2330 o          0 ATP      -0.719000
     15 O6          -2.9530    -0.1540     6.6910 o          0 ATP      -0.719000
     16 O7          -0.9150    -1.6290     7.6980 o          0 ATP      -0.921500
     17 O8          -0.3310    -1.2180    10.1290 o          0 ATP      -0.921500
     18 O9          -0.8780     2.0720     6.6890 o          0 ATP      -0.957167
     19 O10          1.5570     2.0540     7.1690 o          0 ATP      -0.957167
     20 N9          -8.1440    -2.0210     7.0860 na         0 ATP      -0.283000
     21 C8          -7.6400    -0.7820     6.8740 cc         0 ATP       0.289700
     22 N7          -8.4650    -0.0440     6.1370 nd         0 ATP      -0.762100
     23 C5          -9.5410    -0.8170     5.8720 ca         0 ATP      -0.132200
     24 C4          -9.3400    -2.0830     6.4840 ca         0 ATP       0.401800
     25 N3         -10.2460    -3.0530     6.3970 nb         0 ATP      -0.686000
     26 C2         -11.3590    -2.8220     5.7100 ca         0 ATP       0.564900
     27 N1         -11.6330    -1.6620     5.0900 nb         0 ATP      -0.788000
     28 C6         -10.7640    -0.6390     5.1410 ca         0 ATP       0.544200
     29 N6         -11.0500     0.5170     4.5210 nv         0 ATP      -0.891500
     30 O2'         -6.8270    -5.3240     7.4030 oh         0 ATP      -0.588800
     31 O3'         -4.2890    -4.5380     7.3120 oh         0 ATP      -0.639800
     32 H1'         -8.2310    -3.6550     8.2710 h2         0 ATP       0.048700
     33 H2'         -6.8240    -3.8200     6.0750 h1         0 ATP       0.052700
     34 H3'         -4.9480    -2.7280     6.8270 h1         0 ATP       0.088700
     35 H4'         -5.2940    -3.7650     9.4290 h1         0 ATP       0.081700
     36 HH5'        -4.4760    -1.7520    10.1500 h1         0 ATP       0.032200
     37 H5          -3.4900    -2.2480     8.9960 h1         0 ATP       0.032200
     38 H8          -6.7200    -0.4280     7.2640 h5         0 ATP       0.230800
     39 H2         -12.0910    -3.5850     5.6300 h5         0 ATP       0.002100
     40 HH6        -11.9010     0.6170     4.0260 hn         0 ATP       0.351300
     41 H6         -10.4080     1.2700     4.5600 hn         0 ATP       0.351300
     42 HO2'        -7.7360    -5.5950     7.1550 ho         0 ATP       0.408000
     43 HO3'        -3.4240    -4.2170     7.6430 ho         0 ATP       0.496000
@<TRIPOS>BOND
     1     1     2 1   
     2     1    13 1   
     3     1    20 1   
     4     1    32 1   
     5     2     3 1   
     6     2    30 1   
     7     2    33 1   
     8     3     4 1   
     9     3    31 1   
    10     3    34 1   
    11     4     5 1   
    12     4    13 1   
    13     4    35 1   
    14     5     6 1   
    15     5    36 1   
    16     5    37 1   
    17     6     7 1   
    18     7     8 1   
    19     7    14 1   
    20     7    15 1   
    21     8     9 1   
    22     9    10 1   
    23     9    16 1   
    24     9    17 1   
    25    10    11 1   
    26    11    12 1   
    27    11    18 1   
    28    11    19 1   
    29    20    21 1   
    30    20    24 1   
    31    21    22 2   
    32    21    38 1   
    33    22    23 1   
    34    23    24 ar  
    35    23    28 ar  
    36    24    25 ar  
    37    25    26 ar  
    38    26    27 ar  
    39    26    39 1   
    40    27    28 ar  
    41    28    29 1   
    42    29    40 1   
    43    29    41 1   
    44    30    42 1   
    45    31    43 1   
@<TRIPOS>SUBSTRUCTURE
     1 ATP         1 TEMP              0 ****  ****    0 ROOT
